Version 4
SHEET 1 880 680
WIRE 80 -336 -192 -336
WIRE 560 -336 304 -336
WIRE 80 -256 80 -336
WIRE 304 -256 304 -336
WIRE 560 -256 560 -336
WIRE 80 -128 80 -176
WIRE 192 -128 80 -128
WIRE 80 -96 80 -128
WIRE 304 -96 304 -176
WIRE 80 -48 -64 -48
WIRE 448 -48 304 -48
WIRE 192 -16 192 -128
WIRE 192 -16 128 -16
WIRE 256 -16 192 -16
WIRE 304 32 304 0
WIRE 304 32 192 32
WIRE 80 64 80 0
WIRE 304 64 304 32
WIRE -64 112 -64 -48
WIRE 80 112 -64 112
WIRE 448 112 448 -48
WIRE 448 112 304 112
WIRE 192 144 192 32
WIRE 192 144 128 144
WIRE 256 144 192 144
WIRE -192 256 -192 -336
WIRE -64 256 -64 112
WIRE 80 256 80 160
WIRE 304 256 304 160
WIRE 448 256 448 112
WIRE 560 256 560 -176
FLAG 80 256 0
FLAG 304 256 0
FLAG -64 256 0
FLAG 448 256 0
FLAG 560 256 0
FLAG -192 256 0
SYMBOL nmos4 128 64 M0
SYMATTR InstName M1
SYMATTR Value tsmc25n
SYMATTR Value2 l=0.18 w=20
SYMBOL nmos4 256 64 R0
SYMATTR InstName M2
SYMATTR Value tsmc25n
SYMATTR Value2 l=0.18 w=20
SYMBOL nmos4 128 -96 M0
SYMATTR InstName M3
SYMATTR Value tsmc25n
SYMATTR Value2 l=0.18 w=20
SYMBOL nmos4 256 -96 R0
SYMATTR InstName M4
SYMATTR Value tsmc25n
SYMATTR Value2 l=0.18 w=20
SYMBOL res 288 -272 R0
SYMATTR InstName R1
SYMATTR Value 50
SYMBOL voltage 560 -272 R0
WINDOW 123 0 0 Left 0
WINDOW 39 0 0 Left 0
SYMATTR InstName V1
SYMATTR Value 12V
SYMBOL current 80 -256 R0
WINDOW 123 0 0 Left 0
WINDOW 39 0 0 Left 0
SYMATTR InstName I1
SYMATTR Value {Iref}
TEXT 88 312 Left 2 !.include nmos.txt
TEXT 88 376 Left 2 !.op
TEXT 88 344 Left 2 !.step param Iref 0 100m 1m
