Version 4
SHEET 1 880 680
WIRE 224 -48 112 -48
WIRE 112 0 112 -48
WIRE 224 0 224 -48
WIRE -512 144 -576 144
WIRE -336 144 -432 144
WIRE -128 144 -336 144
WIRE 112 144 112 80
WIRE 112 144 -48 144
WIRE 208 144 112 144
WIRE 464 176 368 176
WIRE -336 208 -336 144
WIRE -224 208 -336 208
WIRE -64 208 -160 208
WIRE 112 208 -64 208
WIRE 208 208 112 208
WIRE 464 256 464 176
WIRE -64 272 -64 208
WIRE 112 272 112 208
WIRE -336 288 -336 208
WIRE 464 400 464 336
WIRE -576 416 -576 144
WIRE -336 416 -336 352
WIRE -64 416 -64 352
WIRE 112 416 112 352
FLAG 464 400 0
FLAG 224 0 0
FLAG 112 416 0
FLAG -64 416 0
FLAG -336 416 0
FLAG -576 416 0
SYMBOL res 448 240 R0
SYMATTR InstName RL
SYMATTR Value 1
SYMBOL current 112 0 R0
WINDOW 123 24 108 Left 2
WINDOW 39 0 0 Left 0
SYMATTR Value2 AC {I5}
SYMATTR InstName I5
SYMATTR Value 0
SYMBOL current 112 352 R180
WINDOW 0 24 80 Left 2
WINDOW 3 -126 -45 Left 2
WINDOW 123 -126 -73 Left 2
WINDOW 39 0 0 Left 0
SYMATTR InstName I4
SYMATTR Value ""
SYMATTR Value2 AC {I4}
SYMBOL res -80 256 R0
SYMATTR InstName R2
SYMATTR Value 0.5k
SYMBOL cap -160 192 R90
WINDOW 0 0 32 VBottom 2
WINDOW 3 32 32 VTop 2
SYMATTR InstName C1
SYMATTR Value 10n
SYMBOL cap -320 352 R180
WINDOW 0 24 56 Left 2
WINDOW 3 24 8 Left 2
SYMATTR InstName C2
SYMATTR Value 1n
SYMBOL res -32 128 R90
WINDOW 0 0 56 VBottom 2
WINDOW 3 32 56 VTop 2
SYMATTR InstName R3
SYMATTR Value 0.5k
SYMBOL current -512 144 R270
WINDOW 0 32 40 VTop 2
WINDOW 3 -50 38 VBottom 2
WINDOW 123 -78 38 VBottom 2
WINDOW 39 0 0 Left 0
SYMATTR InstName I2
SYMATTR Value 0
SYMATTR Value2 AC {I2}
SYMBOL CCII_2 288 176 R0
SYMATTR InstName X1
TEXT -432 0 Left 2 !.ac dec 1000 1 5gig
TEXT -432 24 Left 2 !.param I5=10u
TEXT -432 48 Left 2 !.param I4=I5*11
TEXT -432 72 Left 2 !.param I2 =-I5
